New linecode.4c_240sq nphases=3 R1=0.127 X1=0.072 R0=0.342 X0=0.089 units=km normamp=325
New linecode.4c_185sq nphases=4 R1=0.202 X1=0.072 units=km normamp=280
New linecode.4c_16sq nphases=1 R1=1.15 X1=0.083 R0=1.2 X0=0.083 units=km normamp=128

